Version 4
SHEET 1 2120 916
WIRE 96 -416 -48 -416
WIRE 272 -416 96 -416
WIRE 400 -416 272 -416
WIRE 1056 -368 1056 -400
WIRE 96 -352 96 -416
WIRE 272 -336 272 -416
WIRE 400 -240 400 -416
WIRE 448 -240 400 -240
WIRE 544 -240 512 -240
WIRE 656 -240 624 -240
WIRE 736 -240 656 -240
WIRE 816 -240 736 -240
WIRE 1056 -240 1056 -288
WIRE 1056 -240 1008 -240
WIRE 1296 -240 1056 -240
WIRE 736 -224 736 -240
WIRE 96 -208 96 -272
WIRE 96 -208 -48 -208
WIRE 272 -208 272 -272
WIRE 272 -208 96 -208
WIRE 352 -208 272 -208
WIRE 1184 -176 1008 -176
WIRE 96 -144 96 -208
WIRE 352 -144 352 -208
WIRE 736 -144 736 -160
WIRE 816 -144 736 -144
WIRE 656 -128 656 -240
WIRE 96 -16 96 -64
WIRE 656 32 656 -64
WIRE 736 32 736 -144
WIRE 736 32 656 32
WIRE 1184 64 1184 -176
WIRE 1280 64 1184 64
WIRE 96 128 96 64
WIRE 736 128 736 32
WIRE 96 288 96 208
WIRE 96 288 -48 288
WIRE 320 288 96 288
WIRE 608 288 384 288
WIRE 1152 288 608 288
WIRE 1504 288 1408 288
WIRE 1696 288 1504 288
WIRE 1760 288 1696 288
WIRE 1504 320 1504 288
WIRE 1696 336 1696 288
WIRE 608 384 608 352
WIRE 608 384 512 384
WIRE 608 416 608 384
WIRE 96 480 96 288
WIRE 320 480 96 480
WIRE 608 480 384 480
WIRE 1280 480 1280 384
WIRE 1280 480 608 480
WIRE 1504 480 1504 384
WIRE 1504 480 1280 480
WIRE 1696 480 1696 416
WIRE 1696 480 1504 480
WIRE 1760 480 1696 480
WIRE 96 528 96 480
WIRE 96 656 96 592
WIRE 512 656 512 384
WIRE 512 656 96 656
WIRE 96 736 96 656
WIRE 96 880 96 816
FLAG 352 -144 0
FLAG 1760 480 dgnd
FLAG 1760 288 dvcc
FLAG 736 128 0
FLAG 1056 -400 dvcc
FLAG 1280 64 dgnd
FLAG 1296 -240 dsense
FLAG -48 -416 ge
FLAG -48 -208 ws
FLAG -48 288 sw
FLAG 96 880 0
SYMBOL voltage 96 112 R0
WINDOW 123 0 0 Left 0
WINDOW 39 0 0 Left 0
SYMATTR InstName V1
SYMATTR Value SINE(0 8 50 0 0 0 0)
SYMBOL voltage 96 -368 R0
WINDOW 123 0 0 Left 0
WINDOW 39 0 0 Left 0
SYMATTR InstName V2
SYMATTR Value SINE(0 9.8 50 0 0 0 25)
SYMBOL diode 448 -224 R270
WINDOW 0 32 32 VTop 2
WINDOW 3 0 32 VBottom 2
SYMATTR InstName D3
SYMATTR Value 1N4148
SYMBOL PowerProducts\\LT1117-3.3 1280 288 R0
SYMATTR InstName U1
SYMBOL polcap 1488 320 R0
WINDOW 3 24 56 Left 2
SYMATTR Value 22µ
SYMATTR InstName C4
SYMATTR Description Capacitor
SYMATTR Type cap
SYMATTR SpiceLine V=10 Irms=90m Rser=1.97249 Lser=1.22599n mfg="Würth Elektronik" pn="865060240001 WCAP-ASLL 4x5,5" type="Al electrolytic"
SYMBOL polcap 592 288 R0
WINDOW 3 24 56 Left 2
SYMATTR Value 470µ
SYMATTR InstName C5
SYMATTR Description Capacitor
SYMATTR Type cap
SYMATTR SpiceLine V=25 Irms=130m Rser=0.365423 Lser=5.51428n
SYMBOL polcap 592 416 R0
WINDOW 3 24 56 Left 2
SYMATTR Value 470µ
SYMATTR InstName C6
SYMATTR Description Capacitor
SYMATTR Type cap
SYMATTR SpiceLine V=25 Irms=130m Rser=0.365423 Lser=5.51428n
SYMBOL diode 320 304 R270
WINDOW 0 32 32 VTop 2
WINDOW 3 0 32 VBottom 2
SYMATTR InstName D1
SYMATTR Value 1N4148
SYMBOL diode 384 464 R90
WINDOW 0 0 32 VBottom 2
WINDOW 3 32 32 VTop 2
SYMATTR InstName D5
SYMATTR Value 1N4148
SYMBOL voltage 96 -32 R0
WINDOW 123 0 0 Left 0
WINDOW 39 0 0 Left 0
SYMATTR InstName V3
SYMATTR Value SINE(0 8 50 0 0 0 25)
SYMBOL res 1040 -384 R0
SYMATTR InstName R2
SYMATTR Value 10k
SYMBOL res 112 832 R180
WINDOW 0 36 76 Left 2
WINDOW 3 36 40 Left 2
SYMATTR InstName R4
SYMATTR Value 10
SYMBOL Optos\\CNY17-1 912 -176 R0
SYMATTR InstName U3
SYMBOL res 528 -224 R270
WINDOW 0 32 56 VTop 2
WINDOW 3 0 56 VBottom 2
SYMATTR InstName R5
SYMATTR Value 6.8k
SYMBOL cap 640 -128 R0
SYMATTR InstName C1
SYMATTR Value 100n
SYMBOL diode 752 -160 R180
WINDOW 0 24 64 Left 2
WINDOW 3 24 0 Left 2
SYMATTR InstName D2
SYMATTR Value 1N4148
SYMBOL voltage 96 -160 R0
WINDOW 123 0 0 Left 0
WINDOW 39 24 44 Left 2
SYMATTR InstName V4
SYMATTR Value PULSE(0 100 0.1 0 0 0.0001 0.002 1)
SYMBOL TVSdiode 80 528 R0
SYMATTR InstName D6
SYMATTR Value SMBJ24CA
SYMBOL TVSdiode 256 -336 R0
SYMATTR InstName D4
SYMATTR Value SMBJ24CA
SYMBOL res 1680 320 R0
SYMATTR InstName R1
SYMATTR Value 100
TEXT -480 768 Left 2 !.tran 1 startup
TEXT 696 320 Left 2 ;1W Resistor
TEXT 1344 184 Left 2 ;DC/DC buck converter
TEXT -224 544 Left 2 ;Reichelt "1,5KE 36CA"
